@<TRIPOS>MOLECULE
4ggl_ligand
 50 54 0 0 0
SMALL
USER_CHARGES

@<TRIPOS>ATOM
      1 O          -6.4760   -6.4420  -20.7670 O.2     1  UNL11      -0.2662
      2 C          -7.1400   -7.2710  -20.0970 C.2     1  UNL11       0.2675
      3 C          -6.8410   -8.6400  -20.1820 C.3     1  UNL11       0.0943
      4 N          -8.1340   -6.8180  -19.3050 N.am    1  UNL11      -0.3183
      5 C          -8.8510   -7.6790  -18.5800 C.3     1  UNL11       0.0877
      6 C          -8.5390   -9.1330  -18.6680 C.3     1  UNL11       0.1766
      7 N          -7.5310   -9.5510  -19.4770 N.pl3   1  UNL11      -0.2291
      8 N          -9.2620  -10.0060  -17.9350 N.pl3   1  UNL11      -0.2334
      9 C         -10.2590   -9.5750  -17.1410 C.3     1  UNL11       0.0439
     10 C         -10.5830   -8.2210  -17.0230 C.3     1  UNL11       0.0358
     11 C          -9.8840   -7.2570  -17.7500 C.3     1  UNL11      -0.0193
     12 S         -11.8680   -7.7940  -16.0010 S.3     1  UNL11      -0.0483
     13 C         -11.5520   -6.4460  -15.0390 C.3     1  UNL11       0.1966
     14 N         -10.3200   -5.8840  -15.0190 N.pl3   1  UNL11      -0.2059
     15 C         -10.0150   -4.8380  -14.2190 C.3     1  UNL11       0.1365
     16 N          -8.7250   -4.3010  -14.3340 N.pl3   1  UNL11      -0.3090
     17 C          -7.6800   -4.9830  -15.0920 C.3     1  UNL11       0.0189
     18 C          -6.8830   -3.7900  -15.6200 C.3     1  UNL11       0.0075
     19 C          -7.4970   -2.5080  -15.0650 C.3     1  UNL11      -0.0069
     20 N          -8.2850   -1.8570  -16.0950 N.4     1  UNL11       0.2219
     21 C          -8.4080   -2.9430  -13.9200 C.3     1  UNL11       0.0563
     22 C         -11.1300   -4.2890  -13.3760 C.3     1  UNL11       0.0772
     23 C         -12.4560   -4.9540  -13.4550 C.3     1  UNL11       0.1460
     24 N         -12.5810   -5.9940  -14.2990 N.pl3   1  UNL11      -0.2036
     25 N         -13.3590   -4.3640  -12.6350 N.pl3   1  UNL11      -0.3415
     26 C         -12.8420   -3.3380  -11.9280 C.3     1  UNL11       0.0365
     27 C         -11.4350   -3.2530  -12.3710 C.3     1  UNL11       0.0740
     28 CL        -10.2490   -2.0400  -11.6710 Cl      1  UNL11      -0.0809
     29 C         -13.5570   -2.4570  -10.9220 C.3     1  UNL11      -0.0139
     30 C         -14.5800   -3.2440  -10.1170 C.3     1  UNL11      -0.0599
     31 H          -6.0751   -8.9527  -20.7990 H       1  UNL11       0.0886
     32 H          -8.3300   -5.8542  -19.2620 H       1  UNL11       0.1690
     33 H         -10.8022  -10.2671  -16.6015 H       1  UNL11       0.0842
     34 H         -10.1271   -6.2569  -17.6738 H       1  UNL11       0.0651
     35 H          -8.0896   -5.5668  -15.8897 H       1  UNL11       0.0466
     36 H          -7.1047   -5.6825  -14.5222 H       1  UNL11       0.0466
     37 H          -6.9229   -3.7750  -16.6891 H       1  UNL11       0.0336
     38 H          -5.8614   -3.8685  -15.3116 H       1  UNL11       0.0336
     39 H          -6.7467   -1.8198  -14.7359 H       1  UNL11       0.0866
     40 H          -9.0084   -2.4961  -16.4245 H       1  UNL11       0.1997
     41 H          -7.6793   -1.5984  -16.8739 H       1  UNL11       0.1997
     42 H          -8.7211   -1.0189  -15.7106 H       1  UNL11       0.1997
     43 H          -7.8968   -2.9258  -12.9802 H       1  UNL11       0.0520
     44 H          -9.2597   -2.3142  -13.7646 H       1  UNL11       0.0520
     45 H         -14.2969   -4.6545  -12.5625 H       1  UNL11       0.1671
     46 H         -14.0579   -1.6689  -11.4445 H       1  UNL11       0.0325
     47 H         -12.8286   -2.0631  -10.2443 H       1  UNL11       0.0325
     48 H         -15.3193   -3.6475  -10.7770 H       1  UNL11       0.0233
     49 H         -15.0508   -2.5959   -9.4077 H       1  UNL11       0.0233
     50 H         -14.0895   -4.0422   -9.6001 H       1  UNL11       0.0233
@<TRIPOS>UNITY_ATOM_ATTR
20 1
charge 1
@<TRIPOS>BOND
     1     1     2    2
     2     2     3   ar
     3     2     4   ar
     4     3     7   ar
     5     4     5   ar
     6     5     6   ar
     7     5    11   ar
     8     6     7   ar
     9     6     8   ar
    10     8     9   ar
    11     9    10   ar
    12    10    11   ar
    13    10    12    1
    14    12    13    1
    15    13    14   ar
    16    13    24   ar
    17    14    15   ar
    18    15    16    1
    19    15    22   ar
    20    16    17    1
    21    16    21    1
    22    17    18    1
    23    18    19    1
    24    19    20    1
    25    19    21    1
    26    22    23   ar
    27    22    27   ar
    28    23    24   ar
    29    23    25   ar
    30    25    26   ar
    31    26    27   ar
    32    26    29    1
    33    27    28    1
    34    29    30    1
    35     3    31    1
    36     4    32    1
    37     9    33    1
    38    11    34    1
    39    17    35    1
    40    17    36    1
    41    18    37    1
    42    18    38    1
    43    19    39    1
    44    20    40    1
    45    20    41    1
    46    20    42    1
    47    21    43    1
    48    21    44    1
    49    25    45    1
    50    29    46    1
    51    29    47    1
    52    30    48    1
    53    30    49    1
    54    30    50    1
