@<TRIPOS>MOLECULE
6ios_ligand
 17 17 0 0 0
SMALL
USER_CHARGES

@<TRIPOS>ATOM
      1 N         -11.8350   11.7820  -12.7880 N.4     1  PRO11       0.2333
      2 CA        -11.0460   10.9740  -11.8520 C.3     1  PRO11       0.0179
      3 C         -11.2620    9.4660  -12.0170 C.3     1  PRO11       0.0894
      4 O         -12.0830    9.0290  -12.8460 O.co2   1  PRO11      -0.5442
      5 CB        -11.5560   11.4330  -10.4860 C.3     1  PRO11       0.0005
      6 CG        -12.9350   11.9900  -10.7490 C.3     1  PRO11      -0.0071
      7 CD        -12.8350   12.6150  -12.0830 C.3     1  PRO11      -0.0329
      8 OXT       -10.6210    8.6740  -11.3060 O.2     1  PRO11      -0.5442
      9 H         -12.3198   11.1597  -13.4347 H       1  PRO11       0.2020
     10 H         -11.1983   12.4033  -13.2870 H       1  PRO11       0.2020
     11 H          -9.9961   11.1119  -12.0053 H       1  PRO11       0.0915
     12 H         -10.9164   12.1889  -10.0806 H       1  PRO11       0.0326
     13 H         -11.5750   10.6334   -9.7753 H       1  PRO11       0.0326
     14 H         -13.1960   12.7178  -10.0093 H       1  PRO11       0.0319
     15 H         -13.6922   11.2350  -10.7099 H       1  PRO11       0.0319
     16 H         -13.7778   12.5884  -12.5882 H       1  PRO11       0.0814
     17 H         -12.5560   13.6470  -12.0370 H       1  PRO11       0.0814
@<TRIPOS>UNITY_ATOM_ATTR
1 1
charge 1
4 1
charge -1
@<TRIPOS>BOND
     1     1     2    1
     2     1     7    1
     3     2     3    1
     4     2     5    1
     5     3     4    1
     6     3     8    2
     7     5     6    1
     8     6     7    1
     9     1     9    1
    10     1    10    1
    11     2    11    1
    12     5    12    1
    13     5    13    1
    14     6    14    1
    15     6    15    1
    16     7    16    1
    17     7    17    1
